_benchmark/grid_models/RuralMT/cartella/Line.dss
New "Line.l_002-015" bus1=n_002 bus2=n_015 Seasons=1 Ratings=[400,] emergamps=600 C0=3.183099E-009 B0=1E-009 C1=3.183099E-009 x0=1E-009 x1=0.125547 length=1.37 B1=1E-009 normamps=260.0 r0=0 r1=0.254014 enabled=true
New "Line.l_015-014" bus1=n_015 bus2=n_014 Seasons=1 Ratings=[400,] emergamps=600 C0=3.183099E-009 B0=1E-009 C1=3.183099E-009 x0=1E-009 x1=0.110344 length=3.07 B1=1E-009 normamps=330.0 r0=0 r1=0.165517 enabled=true
New "Line.l_014-022" bus1=n_014 bus2=n_022 Seasons=1 Ratings=[400,] emergamps=600 C0=3.183099E-009 B0=1E-009 C1=3.183099E-009 x0=1E-009 x1=0.387358 length=0.8 B1=1E-009 normamps=190.0 r0=0 r1=0.5179 enabled=true
New "Line.l_022-006" bus1=n_022 bus2=n_006 Seasons=1 Ratings=[400,] emergamps=600 C0=3.183099E-009 B0=1E-009 C1=3.183099E-009 x0=1E-009 x1=0.387358 length=0.9 B1=1E-009 normamps=190.0 r0=0 r1=0.5179 enabled=true
New "Line.l_022-026" bus1=n_022 bus2=n_026 Seasons=1 Ratings=[400,] emergamps=600 C0=3.183099E-009 B0=1E-009 C1=3.183099E-009 x0=1E-009 x1=0.413339 length=1.13 B1=1E-009 normamps=105.0 r0=0 r1=1.12 enabled=true
New "Line.l_026-017" bus1=n_026 bus2=n_017 Seasons=1 Ratings=[400,] emergamps=600 C0=3.183099E-009 B0=1E-009 C1=3.183099E-009 x0=1E-009 x1=0.40715 length=1.8 B1=1E-009 normamps=140.0 r0=0 r1=0.7214 enabled=true
New "Line.l_026-011" bus1=n_026 bus2=n_011 Seasons=1 Ratings=[400,] emergamps=600 C0=3.183099E-009 B0=1E-009 C1=3.183099E-009 x0=1E-009 x1=0.387358 length=2.25 B1=1E-009 normamps=190.0 r0=0 r1=0.5179 enabled=true
New "Line.l_022-008" bus1=n_022 bus2=n_008 Seasons=1 Ratings=[400,] emergamps=600 C0=3.183099E-009 B0=1E-009 C1=3.183099E-009 x0=1E-009 x1=0.387358 length=1.33 B1=1E-009 normamps=190.0 r0=0 r1=0.5179 enabled=true
New "Line.l_008-020" bus1=n_008 bus2=n_020 Seasons=1 Ratings=[400,] emergamps=600 C0=3.183099E-009 B0=1E-009 C1=3.183099E-009 x0=1E-009 x1=0.387358 length=0.47 B1=1E-009 normamps=190.0 r0=0 r1=0.5179 enabled=true
New "Line.l_020-004" bus1=n_020 bus2=n_004 Seasons=1 Ratings=[400,] emergamps=600 C0=3.183099E-009 B0=1E-009 C1=3.183099E-009 x0=1E-009 x1=0.387358 length=1.385 B1=1E-009 normamps=190.0 r0=0 r1=0.5179 enabled=true
New "Line.l_004-025" bus1=n_004 bus2=n_025 Seasons=1 Ratings=[400,] emergamps=600 C0=3.183099E-009 B0=1E-009 C1=3.183099E-009 x0=1E-009 x1=0.387358 length=0.345 B1=1E-009 normamps=190.0 r0=0 r1=0.5179 enabled=true
New "Line.l_025-018" bus1=n_025 bus2=n_018 Seasons=1 Ratings=[400,] emergamps=600 C0=3.183099E-009 B0=1E-009 C1=3.183099E-009 x0=1E-009 x1=0.413339 length=3.12 B1=1E-009 normamps=105.0 r0=0 r1=1.12 enabled=true
New "Line.l_025-021" bus1=n_025 bus2=n_021 Seasons=1 Ratings=[400,] emergamps=600 C0=3.183099E-009 B0=1E-009 C1=3.183099E-009 x0=1E-009 x1=0.387358 length=1.85 B1=1E-009 normamps=190.0 r0=0 r1=0.5179 enabled=true
New "Line.l_021-007" bus1=n_021 bus2=n_007 Seasons=1 Ratings=[400,] emergamps=600 C0=3.183099E-009 B0=1E-009 C1=3.183099E-009 x0=1E-009 x1=0.387358 length=1.35 B1=1E-009 normamps=190.0 r0=0 r1=0.5179 enabled=true
New "Line.l_007-024" bus1=n_007 bus2=n_024 Seasons=1 Ratings=[400,] emergamps=600 C0=3.183099E-009 B0=1E-009 C1=3.183099E-009 x0=1E-009 x1=0.387358 length=1.68 B1=1E-009 normamps=190.0 r0=0 r1=0.5179 enabled=true
New "Line.l_024-023" bus1=n_024 bus2=n_023 Seasons=1 Ratings=[400,] emergamps=600 C0=3.183099E-009 B0=1E-009 C1=3.183099E-009 x0=1E-009 x1=0.413339 length=1 B1=1E-009 normamps=105.0 r0=0 r1=1.12 enabled=true
New "Line.l_007-013" bus1=n_007 bus2=n_013 Seasons=1 Ratings=[400,] emergamps=600 C0=3.183099E-009 B0=1E-009 C1=3.183099E-009 x0=1E-009 x1=0.413339 length=1.79 B1=1E-009 normamps=105.0 r0=0 r1=1.12 enabled=true
New "Line.l_013-003" bus1=n_013 bus2=n_003 Seasons=1 Ratings=[400,] emergamps=600 C0=3.183099E-009 B0=1E-009 C1=3.183099E-009 x0=1E-009 x1=0.413339 length=1.2 B1=1E-009 normamps=105.0 r0=0 r1=1.12 enabled=true
New "Line.l_021-012" bus1=n_021 bus2=n_012 Seasons=1 Ratings=[400,] emergamps=600 C0=3.183099E-009 B0=1E-009 C1=3.183099E-009 x0=1E-009 x1=0.413339 length=1.4 B1=1E-009 normamps=105.0 r0=0 r1=1.12 enabled=true
New "Line.l_012-005" bus1=n_012 bus2=n_005 Seasons=1 Ratings=[400,] emergamps=600 C0=3.183099E-009 B0=1E-009 C1=3.183099E-009 x0=1E-009 x1=0.40715 length=1.3 B1=1E-009 normamps=140.0 r0=0 r1=0.7214 enabled=true
New "Line.l_005-016" bus1=n_005 bus2=n_016 Seasons=1 Ratings=[400,] emergamps=600 C0=3.183099E-009 B0=1E-009 C1=3.183099E-009 x0=1E-009 x1=0.40715 length=1.333 B1=1E-009 normamps=140.0 r0=0 r1=0.7214 enabled=true
New "Line.l_020-009" bus1=n_020 bus2=n_009 Seasons=1 Ratings=[400,] emergamps=600 C0=3.183099E-009 B0=1E-009 C1=3.183099E-009 x0=1E-009 x1=0.387358 length=2.4 B1=1E-009 normamps=190.0 r0=0 r1=0.5179 enabled=true
New "Line.l_009-010" bus1=n_009 bus2=n_010 Seasons=1 Ratings=[400,] emergamps=600 C0=3.183099E-009 B0=1E-009 C1=3.183099E-009 x0=1E-009 x1=0.413339 length=0.98 B1=1E-009 normamps=105.0 r0=0 r1=1.12 enabled=true
New "Line.l_010-019" bus1=n_010 bus2=n_019 Seasons=1 Ratings=[400,] emergamps=600 C0=3.183099E-009 B0=1E-009 C1=3.183099E-009 x0=1E-009 x1=0.413339 length=0.78 B1=1E-009 normamps=105.0 r0=0 r1=1.12 enabled=true
New "Line.l_002-029_tr2" bus1=n_002 bus2=n_029 Seasons=1 Ratings=[400,] emergamps=600 C0=3.183099E-009 B0=1E-009 C1=3.183099E-009 x0=1E-009 x1=0.370493 length=2.875 B1=1E-009 normamps=235.0 r0=0 r1=0.343449 enabled=true
New "Line.l_029-033" bus1=n_029 bus2=n_033 Seasons=1 Ratings=[400,] emergamps=600 C0=3.183099E-009 B0=1E-009 C1=3.183099E-009 x0=1E-009 x1=0.387358 length=0.85 B1=1E-009 normamps=190.0 r0=0 r1=0.5179 enabled=true
New "Line.l_033-032" bus1=n_033 bus2=n_032 Seasons=1 Ratings=[400,] emergamps=600 C0=3.183099E-009 B0=1E-009 C1=3.183099E-009 x0=1E-009 x1=0.110333 length=0.885 B1=1E-009 normamps=330.0 r0=0 r1=0.1655 enabled=true
New "Line.l_029-031" bus1=n_029 bus2=n_031 Seasons=1 Ratings=[400,] emergamps=600 C0=3.183099E-009 B0=1E-009 C1=3.183099E-009 x0=1E-009 x1=0.384311 length=1.53 B1=1E-009 normamps=235.0 r0=0 r1=0.3529 enabled=true
New "Line.l_031-030" bus1=n_031 bus2=n_030 Seasons=1 Ratings=[400,] emergamps=600 C0=3.183099E-009 B0=1E-009 C1=3.183099E-009 x0=1E-009 x1=0.384311 length=13.42 B1=1E-009 normamps=235.0 r0=0 r1=0.3529 enabled=true
New "Line.l_030-027" bus1=n_030 bus2=n_027 Seasons=1 Ratings=[400,] emergamps=600 C0=3.183099E-009 B0=1E-009 C1=3.183099E-009 x0=1E-009 x1=0.384311 length=3 B1=1E-009 normamps=235.0 r0=0 r1=0.3529 enabled=true
New "Line.l_027-028_tr1" bus1=n_027 bus2=n_028 Seasons=1 Ratings=[400,] emergamps=600 C0=3.183099E-009 B0=1E-009 C1=3.183099E-009 x0=1E-009 x1=0.3884 length=0.76 B1=1E-009 normamps=140.0 r0=0 r1=0.528611 enabled=true
New "Line.l_002-034_tr2" bus1=n_002 bus2=n_034 Seasons=1 Ratings=[400,] emergamps=600 C0=3.183099E-009 B0=1E-009 C1=3.183099E-009 x0=1E-009 x1=0.370543 length=6.14 B1=1E-009 normamps=190.0 r0=0 r1=0.498243 enabled=true
New "Line.l_034-049_tr3" bus1=n_034 bus2=n_049 Seasons=1 Ratings=[400,] emergamps=600 C0=3.183099E-009 B0=1E-009 C1=3.183099E-009 x0=1E-009 x1=0.355824 length=4.6 B1=1E-009 normamps=190.0 r0=0 r1=0.480911 enabled=true
New "Line.l_049-055" bus1=n_049 bus2=n_055 Seasons=1 Ratings=[400,] emergamps=600 C0=3.183099E-009 B0=1E-009 C1=3.183099E-009 x0=1E-009 x1=0.40715 length=1.56 B1=1E-009 normamps=140.0 r0=0 r1=0.7214 enabled=true
New "Line.l_055-042" bus1=n_055 bus2=n_042 Seasons=1 Ratings=[400,] emergamps=600 C0=3.183099E-009 B0=1E-009 C1=3.183099E-009 x0=1E-009 x1=0.387358 length=1.992 B1=1E-009 normamps=190.0 r0=0 r1=0.5179 enabled=true
New "Line.l_042-040" bus1=n_042 bus2=n_040 Seasons=1 Ratings=[400,] emergamps=600 C0=3.183099E-009 B0=1E-009 C1=3.183099E-009 x0=1E-009 x1=0.40715 length=1.464 B1=1E-009 normamps=140.0 r0=0 r1=0.7214 enabled=true
New "Line.l_055-054" bus1=n_055 bus2=n_054 Seasons=1 Ratings=[400,] emergamps=600 C0=3.183099E-009 B0=1E-009 C1=3.183099E-009 x0=1E-009 x1=0.413339 length=2.64 B1=1E-009 normamps=105.0 r0=0 r1=1.12 enabled=true
New "Line.l_055-053" bus1=n_055 bus2=n_053 Seasons=1 Ratings=[400,] emergamps=600 C0=3.183099E-009 B0=1E-009 C1=3.183099E-009 x0=1E-009 x1=0.387358 length=1.8 B1=1E-009 normamps=190.0 r0=0 r1=0.5179 enabled=true
New "Line.l_053-039" bus1=n_053 bus2=n_039 Seasons=1 Ratings=[400,] emergamps=600 C0=3.183099E-009 B0=1E-009 C1=3.183099E-009 x0=1E-009 x1=0.387358 length=1.7 B1=1E-009 normamps=190.0 r0=0 r1=0.5179 enabled=true
New "Line.l_039-048" bus1=n_039 bus2=n_048 Seasons=1 Ratings=[400,] emergamps=600 C0=3.183099E-009 B0=1E-009 C1=3.183099E-009 x0=1E-009 x1=0.387358 length=1.92 B1=1E-009 normamps=190.0 r0=0 r1=0.5179 enabled=true
New "Line.l_053-035" bus1=n_053 bus2=n_035 Seasons=1 Ratings=[400,] emergamps=600 C0=3.183099E-009 B0=1E-009 C1=3.183099E-009 x0=1E-009 x1=0.387358 length=1.86 B1=1E-009 normamps=190.0 r0=0 r1=0.5179 enabled=true
New "Line.l_035-044" bus1=n_035 bus2=n_044 Seasons=1 Ratings=[400,] emergamps=600 C0=3.183099E-009 B0=1E-009 C1=3.183099E-009 x0=1E-009 x1=0.387358 length=1.356 B1=1E-009 normamps=190.0 r0=0 r1=0.5179 enabled=true
New "Line.l_053-038" bus1=n_053 bus2=n_038 Seasons=1 Ratings=[400,] emergamps=600 C0=3.183099E-009 B0=1E-009 C1=3.183099E-009 x0=1E-009 x1=0.387358 length=0.96 B1=1E-009 normamps=190.0 r0=0 r1=0.5179 enabled=true
New "Line.l_038-052" bus1=n_038 bus2=n_052 Seasons=1 Ratings=[400,] emergamps=600 C0=3.183099E-009 B0=1E-009 C1=3.183099E-009 x0=1E-009 x1=0.413339 length=1.5 B1=1E-009 normamps=105.0 r0=0 r1=1.12 enabled=true
New "Line.l_038-045" bus1=n_038 bus2=n_045 Seasons=1 Ratings=[400,] emergamps=600 C0=3.183099E-009 B0=1E-009 C1=3.183099E-009 x0=1E-009 x1=0.387358 length=1.38 B1=1E-009 normamps=190.0 r0=0 r1=0.5179 enabled=true
New "Line.l_045-041" bus1=n_045 bus2=n_041 Seasons=1 Ratings=[400,] emergamps=600 C0=3.183099E-009 B0=1E-009 C1=3.183099E-009 x0=1E-009 x1=0.40715 length=3.006 B1=1E-009 normamps=140.0 r0=0 r1=0.7214 enabled=true
New "Line.l_045-051" bus1=n_045 bus2=n_051 Seasons=1 Ratings=[400,] emergamps=600 C0=3.183099E-009 B0=1E-009 C1=3.183099E-009 x0=1E-009 x1=0.387358 length=1.44 B1=1E-009 normamps=190.0 r0=0 r1=0.5179 enabled=true
New "Line.l_051-046" bus1=n_051 bus2=n_046 Seasons=1 Ratings=[400,] emergamps=600 C0=3.183099E-009 B0=1E-009 C1=3.183099E-009 x0=1E-009 x1=0.40715 length=1.5132 B1=1E-009 normamps=140.0 r0=0 r1=0.7214 enabled=true
New "Line.l_051-036" bus1=n_051 bus2=n_036 Seasons=1 Ratings=[400,] emergamps=600 C0=3.183099E-009 B0=1E-009 C1=3.183099E-009 x0=1E-009 x1=0.387358 length=2.1372 B1=1E-009 normamps=190.0 r0=0 r1=0.5179 enabled=true
New "Line.l_036-043" bus1=n_036 bus2=n_043 Seasons=1 Ratings=[400,] emergamps=600 C0=3.183099E-009 B0=1E-009 C1=3.183099E-009 x0=1E-009 x1=0.40715 length=2.856 B1=1E-009 normamps=140.0 r0=0 r1=0.7214 enabled=true
New "Line.l_036-050" bus1=n_036 bus2=n_050 Seasons=1 Ratings=[400,] emergamps=600 C0=3.183099E-009 B0=1E-009 C1=3.183099E-009 x0=1E-009 x1=0.387358 length=1.2 B1=1E-009 normamps=190.0 r0=0 r1=0.5179 enabled=true
New "Line.l_050-037" bus1=n_050 bus2=n_037 Seasons=1 Ratings=[400,] emergamps=600 C0=3.183099E-009 B0=1E-009 C1=3.183099E-009 x0=1E-009 x1=0.387358 length=1.2 B1=1E-009 normamps=190.0 r0=0 r1=0.5179 enabled=true
New "Line.l_050-047" bus1=n_050 bus2=n_047 Seasons=1 Ratings=[400,] emergamps=600 C0=3.183099E-009 B0=1E-009 C1=3.183099E-009 x0=1E-009 x1=0.413339 length=1.152 B1=1E-009 normamps=105.0 r0=0 r1=1.12 enabled=true
New "Line.l_002-086" bus1=n_002 bus2=n_086 Seasons=1 Ratings=[400,] emergamps=600 C0=3.183099E-009 B0=1E-009 C1=3.183099E-009 x0=1E-009 x1=0.135591 length=1.173 B1=1E-009 normamps=280.0 r0=0 r1=0.2034 enabled=true
New "Line.l_086-083" bus1=n_086 bus2=n_083 Seasons=1 Ratings=[400,] emergamps=600 C0=3.183099E-009 B0=1E-009 C1=3.183099E-009 x0=1E-009 x1=0.387358 length=1.37 B1=1E-009 normamps=190.0 r0=0 r1=0.5179 enabled=true
New "Line.l_083-101" bus1=n_083 bus2=n_101 Seasons=1 Ratings=[400,] emergamps=600 C0=3.183099E-009 B0=1E-009 C1=3.183099E-009 x0=1E-009 x1=0.387358 length=0.45 B1=1E-009 normamps=190.0 r0=0 r1=0.5179 enabled=true
New "Line.l_101-079" bus1=n_101 bus2=n_079 Seasons=1 Ratings=[400,] emergamps=600 C0=3.183099E-009 B0=1E-009 C1=3.183099E-009 x0=1E-009 x1=0.387358 length=0.86 B1=1E-009 normamps=190.0 r0=0 r1=0.5179 enabled=true
New "Line.l_101-084" bus1=n_101 bus2=n_084 Seasons=1 Ratings=[400,] emergamps=600 C0=3.183099E-009 B0=1E-009 C1=3.183099E-009 x0=1E-009 x1=0.387358 length=1.67 B1=1E-009 normamps=190.0 r0=0 r1=0.5179 enabled=true
New "Line.l_084-081" bus1=n_084 bus2=n_081 Seasons=1 Ratings=[400,] emergamps=600 C0=3.183099E-009 B0=1E-009 C1=3.183099E-009 x0=1E-009 x1=0.387358 length=1.84 B1=1E-009 normamps=190.0 r0=0 r1=0.5179 enabled=true
New "Line.l_081-092" bus1=n_081 bus2=n_092 Seasons=1 Ratings=[400,] emergamps=600 C0=3.183099E-009 B0=1E-009 C1=3.183099E-009 x0=1E-009 x1=0.413339 length=0.9 B1=1E-009 normamps=105.0 r0=0 r1=1.12 enabled=true
New "Line.l_081-094" bus1=n_081 bus2=n_094 Seasons=1 Ratings=[400,] emergamps=600 C0=3.183099E-009 B0=1E-009 C1=3.183099E-009 x0=1E-009 x1=0.387358 length=0.8 B1=1E-009 normamps=190.0 r0=0 r1=0.5179 enabled=true
New "Line.l_094-093" bus1=n_094 bus2=n_093 Seasons=1 Ratings=[400,] emergamps=600 C0=3.183099E-009 B0=1E-009 C1=3.183099E-009 x0=1E-009 x1=0.413339 length=0.75 B1=1E-009 normamps=105.0 r0=0 r1=1.12 enabled=true
New "Line.l_094-085" bus1=n_094 bus2=n_085 Seasons=1 Ratings=[400,] emergamps=600 C0=3.183099E-009 B0=1E-009 C1=3.183099E-009 x0=1E-009 x1=0.387358 length=1.58 B1=1E-009 normamps=190.0 r0=0 r1=0.5179 enabled=true
New "Line.l_085-099" bus1=n_085 bus2=n_099 Seasons=1 Ratings=[400,] emergamps=600 C0=3.183099E-009 B0=1E-009 C1=3.183099E-009 x0=1E-009 x1=0.387358 length=0.52 B1=1E-009 normamps=190.0 r0=0 r1=0.5179 enabled=true
New "Line.l_099-103" bus1=n_099 bus2=n_103 Seasons=1 Ratings=[400,] emergamps=600 C0=3.183099E-009 B0=1E-009 C1=3.183099E-009 x0=1E-009 x1=0.387358 length=3.8 B1=1E-009 normamps=190.0 r0=0 r1=0.5179 enabled=true
New "Line.l_103-082" bus1=n_103 bus2=n_082 Seasons=1 Ratings=[400,] emergamps=600 C0=3.183099E-009 B0=1E-009 C1=3.183099E-009 x0=1E-009 x1=0.387358 length=1.4 B1=1E-009 normamps=190.0 r0=0 r1=0.5179 enabled=true
New "Line.l_082-080" bus1=n_082 bus2=n_080 Seasons=1 Ratings=[400,] emergamps=600 C0=3.183099E-009 B0=1E-009 C1=3.183099E-009 x0=1E-009 x1=0.387358 length=1.2 B1=1E-009 normamps=190.0 r0=0 r1=0.5179 enabled=true
New "Line.l_080-096" bus1=n_080 bus2=n_096 Seasons=1 Ratings=[400,] emergamps=600 C0=3.183099E-009 B0=1E-009 C1=3.183099E-009 x0=1E-009 x1=0.387358 length=1.48 B1=1E-009 normamps=190.0 r0=0 r1=0.5179 enabled=true
New "Line.l_096-091" bus1=n_096 bus2=n_091 Seasons=1 Ratings=[400,] emergamps=600 C0=3.183099E-009 B0=1E-009 C1=3.183099E-009 x0=1E-009 x1=0.413339 length=1 B1=1E-009 normamps=105.0 r0=0 r1=1.12 enabled=true
New "Line.l_096-095" bus1=n_096 bus2=n_095 Seasons=1 Ratings=[400,] emergamps=600 C0=3.183099E-009 B0=1E-009 C1=3.183099E-009 x0=1E-009 x1=0.413339 length=0.4 B1=1E-009 normamps=105.0 r0=0 r1=1.12 enabled=true
New "Line.l_095_076" bus1=n_095 bus2=n_076 Seasons=1 Ratings=[400,] emergamps=600 C0=3.183099E-009 B0=1E-009 C1=3.183099E-009 x0=1E-009 x1=0.114291 length=0.001 B1=1E-009 normamps=165.0 r0=0 r1=0.4 enabled=true
New "Line.l_082-088" bus1=n_082 bus2=n_088 Seasons=1 Ratings=[400,] emergamps=600 C0=3.183099E-009 B0=1E-009 C1=3.183099E-009 x0=1E-009 x1=0.387358 length=2.4 B1=1E-009 normamps=190.0 r0=0 r1=0.5179 enabled=true
New "Line.l_088-090" bus1=n_088 bus2=n_090 Seasons=1 Ratings=[400,] emergamps=600 C0=3.183099E-009 B0=1E-009 C1=3.183099E-009 x0=1E-009 x1=0.40715 length=3.86 B1=1E-009 normamps=140.0 r0=0 r1=0.7214 enabled=true
New "Line.l_088-098" bus1=n_088 bus2=n_098 Seasons=1 Ratings=[400,] emergamps=600 C0=3.183099E-009 B0=1E-009 C1=3.183099E-009 x0=1E-009 x1=0.387358 length=1.63 B1=1E-009 normamps=190.0 r0=0 r1=0.5179 enabled=true
New "Line.l_098-100" bus1=n_098 bus2=n_100 Seasons=1 Ratings=[400,] emergamps=600 C0=3.183099E-009 B0=1E-009 C1=3.183099E-009 x0=1E-009 x1=0.114291 length=1.2 B1=1E-009 normamps=165.0 r0=0 r1=0.4 enabled=true
New "Line.l_100-102" bus1=n_100 bus2=n_102 Seasons=1 Ratings=[400,] emergamps=600 C0=3.183099E-009 B0=1E-009 C1=3.183099E-009 x0=1E-009 x1=0.114291 length=0.9 B1=1E-009 normamps=165.0 r0=0 r1=0.4 enabled=true
New "Line.l_102-097" bus1=n_102 bus2=n_097 Seasons=1 Ratings=[400,] emergamps=600 C0=3.183099E-009 B0=1E-009 C1=3.183099E-009 x0=1E-009 x1=0.114291 length=0.74 B1=1E-009 normamps=165.0 r0=0 r1=0.4 enabled=true
New "Line.l_097-089" bus1=n_097 bus2=n_089 Seasons=1 Ratings=[400,] emergamps=600 C0=3.183099E-009 B0=1E-009 C1=3.183099E-009 x0=1E-009 x1=0.114291 length=1 B1=1E-009 normamps=165.0 r0=0 r1=0.4 enabled=true
New "Line.l_089-087" bus1=n_089 bus2=n_087 Seasons=1 Ratings=[400,] emergamps=600 C0=3.183099E-009 B0=1E-009 C1=3.183099E-009 x0=1E-009 x1=0.387358 length=2.082 B1=1E-009 normamps=190.0 r0=0 r1=0.5179 enabled=true
New "Line.l_089-078" bus1=n_089 bus2=n_078 Seasons=1 Ratings=[400,] emergamps=600 C0=3.183099E-009 B0=1E-009 C1=3.183099E-009 x0=1E-009 x1=0.413339 length=2.9 B1=1E-009 normamps=105.0 r0=0 r1=1.12 enabled=true
New "Line.l_078-077" bus1=n_078 bus2=n_077 Seasons=1 Ratings=[400,] emergamps=600 C0=3.183099E-009 B0=1E-009 C1=3.183099E-009 x0=1E-009 x1=0.114291 length=0.001 B1=1E-009 normamps=165.0 r0=0 r1=0.4 enabled=true
New "Line.l_002-056" bus1=n_002 bus2=n_056 Seasons=1 Ratings=[400,] emergamps=600 C0=3.183099E-009 B0=1E-009 C1=3.183099E-009 x0=1E-009 x1=0.108333 length=0.8 B1=1E-009 normamps=245.0 r0=0 r1=0.191666 enabled=true
New "Line.l_002-067" bus1=n_002 bus2=n_067 Seasons=1 Ratings=[400,] emergamps=600 C0=3.183099E-009 B0=1E-009 C1=3.183099E-009 x0=1E-009 x1=0.108333 length=0.35 B1=1E-009 normamps=245.0 r0=0 r1=0.191666 enabled=true
New "Line.l_067-059" bus1=n_067 bus2=n_059 Seasons=1 Ratings=[400,] emergamps=600 C0=3.183099E-009 B0=1E-009 C1=3.183099E-009 x0=1E-009 x1=0.387368 length=1.02 B1=1E-009 normamps=190.0 r0=0 r1=0.517894 enabled=true
New "Line.l_059-066" bus1=n_059 bus2=n_066 Seasons=1 Ratings=[400,] emergamps=600 C0=3.183099E-009 B0=1E-009 C1=3.183099E-009 x0=1E-009 x1=0.387368 length=1.05 B1=1E-009 normamps=190.0 r0=0 r1=0.517894 enabled=true
New "Line.l_066-060" bus1=n_066 bus2=n_060 Seasons=1 Ratings=[400,] emergamps=600 C0=3.183099E-009 B0=1E-009 C1=3.183099E-009 x0=1E-009 x1=0.14 length=1.2 B1=1E-009 normamps=156.0 r0=0 r1=0.56 enabled=true
New "Line.l_066-068" bus1=n_066 bus2=n_068 Seasons=1 Ratings=[400,] emergamps=600 C0=3.183099E-009 B0=1E-009 C1=3.183099E-009 x0=1E-009 x1=0.114285 length=1 B1=1E-009 normamps=165.0 r0=0 r1=0.4 enabled=true
New "Line.l_068-065" bus1=n_068 bus2=n_065 Seasons=1 Ratings=[400,] emergamps=600 C0=3.183099E-009 B0=1E-009 C1=3.183099E-009 x0=1E-009 x1=0.114285 length=1.2 B1=1E-009 normamps=165.0 r0=0 r1=0.4 enabled=true
New "Line.l_065-064" bus1=n_065 bus2=n_064 Seasons=1 Ratings=[400,] emergamps=600 C0=3.183099E-009 B0=1E-009 C1=3.183099E-009 x0=1E-009 x1=0.135593 length=0.83 B1=1E-009 normamps=280.0 r0=0 r1=0.203389 enabled=true
New "Line.l_064-062" bus1=n_064 bus2=n_062 Seasons=1 Ratings=[400,] emergamps=600 C0=3.183099E-009 B0=1E-009 C1=3.183099E-009 x0=1E-009 x1=0.114285 length=1.6 B1=1E-009 normamps=165.0 r0=0 r1=0.4 enabled=true
New "Line.l_062-063" bus1=n_062 bus2=n_063 Seasons=1 Ratings=[400,] emergamps=600 C0=3.183099E-009 B0=1E-009 C1=3.183099E-009 x0=1E-009 x1=0.135593 length=0.906 B1=1E-009 normamps=280.0 r0=0 r1=0.203389 enabled=true
New "Line.l_067-058" bus1=n_067 bus2=n_058 Seasons=1 Ratings=[400,] emergamps=600 C0=3.183099E-009 B0=1E-009 C1=3.183099E-009 x0=1E-009 x1=0.413333 length=1.348 B1=1E-009 normamps=105.0 r0=0 r1=1.12 enabled=true
New "Line.l_058-061" bus1=n_058 bus2=n_061 Seasons=1 Ratings=[400,] emergamps=600 C0=3.183099E-009 B0=1E-009 C1=3.183099E-009 x0=1E-009 x1=0.413333 length=0.15 B1=1E-009 normamps=105.0 r0=0 r1=1.12 enabled=true
New "Line.l_061-057" bus1=n_061 bus2=n_057 Seasons=1 Ratings=[400,] emergamps=600 C0=3.183099E-009 B0=1E-009 C1=3.183099E-009 x0=1E-009 x1=0.114285 length=0.001 B1=1E-009 normamps=165.0 r0=0 r1=0.4 enabled=true
New "Line.l_002-069" bus1=n_002 bus2=n_069 Seasons=1 Ratings=[400,] emergamps=600 C0=3.183099E-009 B0=1E-009 C1=3.183099E-009 x0=1E-009 x1=0.108333 length=1.39 B1=1E-009 normamps=245.0 r0=0 r1=0.191666 enabled=true
New "Line.l_069-075" bus1=n_069 bus2=n_075 Seasons=1 Ratings=[400,] emergamps=600 C0=3.183099E-009 B0=1E-009 C1=3.183099E-009 x0=1E-009 x1=0.108333 length=2.37 B1=1E-009 normamps=245.0 r0=0 r1=0.191666 enabled=true
New "Line.l_075-073" bus1=n_075 bus2=n_073 Seasons=1 Ratings=[400,] emergamps=600 C0=3.183099E-009 B0=1E-009 C1=3.183099E-009 x0=1E-009 x1=0.114285 length=0.57 B1=1E-009 normamps=245.0 r0=0 r1=0.4 enabled=true
New "Line.l_073-072" bus1=n_073 bus2=n_072 Seasons=1 Ratings=[400,] emergamps=600 C0=3.183099E-009 B0=1E-009 C1=3.183099E-009 x0=1E-009 x1=0.114285 length=1.386 B1=1E-009 normamps=245.0 r0=0 r1=0.4 enabled=true
New "Line.l_072-070" bus1=n_072 bus2=n_070 Seasons=1 Ratings=[400,] emergamps=600 C0=3.183099E-009 B0=1E-009 C1=3.183099E-009 x0=1E-009 x1=0.135593 length=1.02 B1=1E-009 normamps=280.0 r0=0 r1=0.203389 enabled=true
New "Line.l_070-074" bus1=n_070 bus2=n_074 Seasons=1 Ratings=[400,] emergamps=600 C0=3.183099E-009 B0=1E-009 C1=3.183099E-009 x0=1E-009 x1=0.114285 length=1.09 B1=1E-009 normamps=165.0 r0=0 r1=0.4 enabled=true
New "Line.l_074-071" bus1=n_074 bus2=n_071 Seasons=1 Ratings=[400,] emergamps=600 C0=3.183099E-009 B0=1E-009 C1=3.183099E-009 x0=1E-009 x1=0.114285 length=0.91 B1=1E-009 normamps=165.0 r0=0 r1=0.4 enabled=true
